grid_simulations/tests/Result_no_control/output_voltage_offpeak.csv
# Result_no_control/output_voltage_offpeak.csv run at 2000-01-01 00:01:00 EST on 963 nodes
node_name,voltA_mag,voltA_angle,voltB_mag,voltB_angle,voltC_mag,voltC_angle
SourceBus,6668.395609,0.000000,6668.395609,4.188790,6668.395609,2.094395
Bus1,252.186598,-0.523599,252.186598,3.665191,252.186598,1.570796
Bus2,252.186598,-0.523599,252.186598,3.665191,252.186598,1.570796
Bus3,252.186598,-0.523599,252.186598,3.665191,252.186598,1.570796
Bus4,252.186598,-0.523599,252.186598,3.665191,252.186598,1.570796
Bus5,252.186598,-0.523599,252.186598,3.665191,252.186598,1.570796
Bus6,252.186598,-0.523599,252.186598,3.665191,252.186598,1.570796
Bus7,252.186598,-0.523599,252.186598,3.665191,252.186598,1.570796
Bus8,252.186598,-0.523599,252.186598,3.665191,252.186598,1.570796
Bus9,252.186598,-0.523599,252.186598,3.665191,252.186598,1.570796
Bus10,252.186598,-0.523599,252.186598,3.665191,252.186598,1.570796
Bus11,252.186598,-0.523599,252.186598,3.665191,252.186598,1.570796
Bus12,252.186598,-0.523599,252.186598,3.665191,252.186598,1.570796
Bus13,252.186598,-0.523599,252.186598,3.665191,252.186598,1.570796
Bus14,252.186598,-0.523599,252.186598,3.665191,252.186598,1.570796
Bus15,252.186598,-0.523599,252.186598,3.665191,252.186598,1.570796
Bus16,252.186598,-0.523599,252.186598,3.665191,252.186598,1.570796
Bus17,252.186598,-0.523599,252.186598,3.665191,252.186598,1.570796
Bus18,252.186598,-0.523599,252.186598,3.665191,252.186598,1.570796
Bus19,252.186598,-0.523599,252.186598,3.665191,252.186598,1.570796
Bus20,252.186598,-0.523599,252.186598,3.665191,252.186598,1.570796
Bus21,252.186598,-0.523599,252.186598,3.665191,252.186598,1.570796
Bus22,252.186598,-0.523599,252.186598,3.665191,252.186598,1.570796
Bus23,252.186598,-0.523599,252.186598,3.665191,252.186598,1.570796
Bus24,252.186598,-0.523599,252.186598,3.665191,252.186598,1.570796
Bus25,252.186598,-0.523599,252.186598,3.665191,252.186598,1.570796
Bus26,252.186598,-0.523599,252.186598,3.665191,252.186598,1.570796
Bus27,252.186598,-0.523599,252.186598,3.665191,252.186598,1.570796
Bus28,252.186598,-0.523599,252.186598,3.665191,252.186598,1.570796
Bus29,252.186598,-0.523599,252.186598,3.665191,252.186598,1.570796
Bus30,252.186598,-0.523599,252.186598,3.665191,252.186598,1.570796
Bus31,252.186598,-0.523599,252.186598,3.665191,252.186598,1.570796
Bus32,252.186598,-0.523599,252.186598,3.665191,252.186598,1.570796
Bus33,252.186598,-0.523599,252.186598,3.665191,252.186598,1.570796
Bus34,252.186598,-0.523599,252.186598,3.665191,252.186598,1.570796
Bus35,252.186598,-0.523599,252.186598,3.665191,252.186598,1.570796
Bus36,252.186598,-0.523599,252.186598,3.665191,252.186598,1.570796
Bus37,252.186598,-0.523599,252.186598,3.665191,252.186598,1.570796
Bus38,252.186598,-0.523599,252.186598,3.665191,252.186598,1.570796
Bus39,252.186598,-0.523599,252.186598,3.665191,252.186598,1.570796
Bus40,252.186598,-0.523599,252.186598,3.665191,252.186598,1.570796
Bus41,252.186598,-0.523599,252.186598,3.665191,252.186598,1.570796
Bus42,252.186598,-0.523599,252.186598,3.665191,252.186598,1.570796
Bus43,252.186598,-0.523599,252.186598,3.665191,252.186598,1.570796
Bus44,252.186598,-0.523599,252.186598,3.665191,252.186598,1.570796
Bus45,252.186598,-0.523599,252.186598,3.665191,252.186598,1.570796
Bus46,252.186598,-0.523599,252.186598,3.665191,252.186598,1.570796
Bus47,252.186598,-0.523599,252.186598,3.665191,252.186598,1.570796
Bus48,252.186598,-0.523599,252.186598,3.665191,252.186598,1.570796
Bus49,252.186598,-0.523599,252.186598,3.665191,252.186598,1.570796
Bus50,252.186598,-0.523599,252.186598,3.665191,252.186598,1.570796
Bus51,252.186598,-0.523599,252.186598,3.665191,252.186598,1.570796
Bus52,252.186598,-0.523599,252.186598,3.665191,252.186598,1.570796
Bus53,252.186598,-0.523599,252.186598,3.665191,252.186598,1.570796
Bus54,252.186598,-0.523599,252.186598,3.665191,252.186598,1.570796
Bus55,252.186598,-0.523599,252.186598,3.665191,252.186598,1.570796
Bus56,252.186598,-0.523599,252.186598,3.665191,252.186598,1.570796
Bus57,252.186598,-0.523599,252.186598,3.665191,252.186598,1.570796
Bus58,252.186598,-0.523599,252.186598,3.665191,252.186598,1.570796
Bus59,252.186598,-0.523599,252.186598,3.665191,252.186598,1.570796
Bus60,252.186598,-0.523599,252.186598,3.665191,252.186598,1.570796
Bus61,252.186598,-0.523599,252.186598,3.665191,252.186598,1.570796
Bus62,252.186598,-0.523599,252.186598,3.665191,252.186598,1.570796
Bus63,252.186598,-0.523599,252.186598,3.665191,252.186598,1.570796
Bus64,252.186598,-0.523599,252.186598,3.665191,252.186598,1.570796
Bus65,252.186598,-0.523599,252.186598,3.665191,252.186598,1.570796
Bus66,252.186598,-0.523599,252.186598,3.665191,252.186598,1.570796
Bus67,252.186598,-0.523599,252.186598,3.665191,252.186598,1.570796
Bus68,252.186598,-0.523599,252.186598,3.665191,252.186598,1.570796
Bus69,252.186598,-0.523599,252.186598,3.665191,252.186598,1.570796
Bus70,252.186598,-0.523599,252.186598,3.665191,252.186598,1.570796
Bus71,252.186598,-0.523599,252.186598,3.665191,252.186598,1.570796
Bus72,252.186598,-0.523599,252.186598,3.665191,252.186598,1.570796
Bus73,252.186598,-0.523599,252.186598,3.665191,252.186598,1.570796
Bus74,252.186598,-0.523599,252.186598,3.665191,252.186598,1.570796
Bus75,252.186598,-0.523599,252.186598,3.665191,252.186598,1.570796
Bus76,252.186598,-0.523599,252.186598,3.665191,252.186598,1.570796
Bus77,252.186598,-0.523599,252.186598,3.665191,252.186598,1.570796
Bus78,252.186598,-0.523599,252.186598,3.665191,252.186598,1.570796
Bus79,252.186598,-0.523599,252.186598,3.665191,252.186598,1.570796
Bus80,252.186598,-0.523599,252.186598,3.665191,252.186598,1.570796
Bus81,252.186598,-0.523599,252.186598,3.665191,252.186598,1.570796
Bus82,252.186598,-0.523599,252.186598,3.665191,252.186598,1.570796
Bus83,252.186598,-0.523599,252.186598,3.665191,252.186598,1.570796
Bus84,252.186598,-0.523599,252.186598,3.665191,252.186598,1.570796
Bus85,252.186598,-0.523599,252.186598,3.665191,252.186598,1.570796
Bus86,252.186598,-0.523599,252.186598,3.665191,252.186598,1.570796
Bus87,252.186598,-0.523599,252.186598,3.665191,252.186598,1.570796
Bus88,252.186598,-0.523599,252.186598,3.665191,252.186598,1.570796
Bus89,252.186598,-0.523599,252.186598,3.665191,252.186598,1.570796
Bus90,252.186598,-0.523599,252.186598,3.665191,252.186598,1.570796
Bus91,252.186598,-0.523599,252.186598,3.665191,252.186598,1.570796
Bus92,252.186598,-0.523599,252.186598,3.665191,252.186598,1.570796
Bus93,252.186598,-0.523599,252.186598,3.665191,252.186598,1.570796
Bus94,252.186598,-0.523599,252.186598,3.665191,252.186598,1.570796
Bus95,252.186598,-0.523599,252.186598,3.665191,252.186598,1.570796
Bus96,252.186598,-0.523599,252.186598,3.665191,252.186598,1.570796
Bus97,252.186598,-0.523599,252.186598,3.665191,252.186598,1.570796
Bus98,252.186598,-0.523599,252.186598,3.665191,252.186598,1.570796
Bus99,252.186598,-0.523599,252.186598,3.665191,252.186598,1.570796
Bus100,252.186598,-0.523599,252.186598,3.665191,252.186598,1.570796
Bus101,252.186598,-0.523599,252.186598,3.665191,252.186598,1.570796
Bus102,252.186598,-0.523599,252.186598,3.665191,252.186598,1.570796
Bus103,252.186598,-0.523599,252.186598,3.665191,252.186598,1.570796
Bus104,252.186598,-0.523599,252.186598,3.665191,252.186598,1.570796
Bus105,252.186598,-0.523599,252.186598,3.665191,252.186598,1.570796
Bus106,252.186598,-0.523599,252.186598,3.665191,252.186598,1.570796
Bus107,252.186598,-0.523599,252.186598,3.665191,252.186598,1.570796
Bus108,252.186598,-0.523599,252.186598,3.665191,252.186598,1.570796
Bus109,252.186598,-0.523599,252.186598,3.665191,252.186598,1.570796
Bus110,252.186598,-0.523599,252.186598,3.665191,252.186598,1.570796
Bus111,252.186598,-0.523599,252.186598,3.665191,252.186598,1.570796
Bus112,252.186598,-0.523599,252.186598,3.665191,252.186598,1.570796
Bus113,252.186598,-0.523599,252.186598,3.665191,252.186598,1.570796
Bus114,252.186598,-0.523599,252.186598,3.665191,252.186598,1.570796
Bus115,252.186598,-0.523599,252.186598,3.665191,252.186598,1.570796
Bus116,252.186598,-0.523599,252.186598,3.665191,252.186598,1.570796
Bus117,252.186598,-0.523599,252.186598,3.665191,252.186598,1.570796
Bus118,252.186598,-0.523599,252.186598,3.665191,252.186598,1.570796
Bus119,252.186598,-0.523599,252.186598,3.665191,252.186598,1.570796
Bus120,252.186598,-0.523599,252.186598,3.665191,252.186598,1.570796
Bus121,252.186598,-0.523599,252.186598,3.665191,252.186598,1.570796
Bus122,252.186598,-0.523599,252.186598,3.665191,252.186598,1.570796
Bus123,252.186598,-0.523599,252.186598,3.665191,252.186598,1.570796
Bus124,252.186598,-0.523599,252.186598,3.665191,252.186598,1.570796
Bus125,252.186598,-0.523599,252.186598,3.665191,252.186598,1.570796
Bus126,252.186598,-0.523599,252.186598,3.665191,252.186598,1.570796
Bus127,252.186598,-0.523599,252.186598,3.665191,252.186598,1.570796
Bus128,252.186598,-0.523599,252.186598,3.665191,252.186598,1.570796
Bus129,252.186598,-0.523599,252.186598,3.665191,252.186598,1.570796
Bus130,252.186598,-0.523599,252.186598,3.665191,252.186598,1.570796
Bus131,252.186598,-0.523599,252.186598,3.665191,252.186598,1.570796
Bus132,252.186598,-0.523599,252.186598,3.665191,252.186598,1.570796
Bus133,252.186598,-0.523599,252.186598,3.665191,252.186598,1.570796
Bus134,252.186598,-0.523599,252.186598,3.665191,252.186598,1.570796
Bus135,252.186598,-0.523599,252.186598,3.665191,252.186598,1.570796
Bus136,252.186598,-0.523599,252.186598,3.665191,252.186598,1.570796
Bus137,252.186598,-0.523599,252.186598,3.665191,252.186598,1.570796
Bus138,252.186598,-0.523599,252.186598,3.665191,252.186598,1.570796
Bus139,252.186598,-0.523599,252.186598,3.665191,252.186598,1.570796
Bus140,252.186598,-0.523599,252.186598,3.665191,252.186598,1.570796
Bus141,252.186598,-0.523599,252.186598,3.665191,252.186598,1.570796
Bus142,252.186598,-0.523599,252.186598,3.665191,252.186598,1.570796
Bus143,252.186598,-0.523599,252.186598,3.665191,252.186598,1.570796
Bus144,252.186598,-0.523599,252.186598,3.665191,252.186598,1.570796
Bus145,252.186598,-0.523599,252.186598,3.665191,252.186598,1.570796
Bus146,252.186598,-0.523599,252.186598,3.665191,252.186598,1.570796
Bus147,252.186598,-0.523599,252.186598,3.665191,252.186598,1.570796
Bus148,252.186598,-0.523599,252.186598,3.665191,252.186598,1.570796
Bus149,252.186598,-0.523599,252.186598,3.665191,252.186598,1.570796
Bus150,252.186598,-0.523599,252.186598,3.665191,252.186598,1.570796
Bus151,252.186598,-0.523599,252.186598,3.665191,252.186598,1.570796
Bus152,252.186598,-0.523599,252.186598,3.665191,252.186598,1.570796
Bus153,252.186598,-0.523599,252.186598,3.665191,252.186598,1.570796
Bus154,252.186598,-0.523599,252.186598,3.665191,252.186598,1.570796
Bus155,252.186598,-0.523599,252.186598,3.665191,252.186598,1.570796
Bus156,252.186598,-0.523599,252.186598,3.665191,252.186598,1.570796
Bus157,252.186598,-0.523599,252.186598,3.665191,252.186598,1.570796
Bus158,252.186598,-0.523599,252.186598,3.665191,252.186598,1.570796
Bus159,252.186598,-0.523599,252.186598,3.665191,252.186598,1.570796
Bus160,252.186598,-0.523599,252.186598,3.665191,252.186598,1.570796
Bus161,252.186598,-0.523599,252.186598,3.665191,252.186598,1.570796
Bus162,252.186598,-0.523599,252.186598,3.665191,252.186598,1.570796
Bus163,252.186598,-0.523599,252.186598,3.665191,252.186598,1.570796
Bus164,252.186598,-0.523599,252.186598,3.665191,252.186598,1.570796
Bus165,252.186598,-0.523599,252.186598,3.665191,252.186598,1.570796
Bus166,252.186598,-0.523599,252.186598,3.665191,252.186598,1.570796
Bus167,252.186598,-0.523599,252.186598,3.665191,252.186598,1.570796
Bus168,252.186598,-0.523599,252.186598,3.665191,252.186598,1.570796
Bus169,252.186598,-0.523599,252.186598,3.665191,252.186598,1.570796
Bus170,252.186598,-0.523599,252.186598,3.665191,252.186598,1.570796
Bus171,252.186598,-0.523599,252.186598,3.665191,252.186598,1.570796
Bus172,252.186598,-0.523599,252.186598,3.665191,252.186598,1.570796
Bus173,252.186598,-0.523599,252.186598,3.665191,252.186598,1.570796
Bus174,252.186598,-0.523599,252.186598,3.665191,252.186598,1.570796
Bus175,252.186598,-0.523599,252.186598,3.665191,252.186598,1.570796
Bus176,252.186598,-0.523599,252.186598,3.665191,252.186598,1.570796
Bus177,252.186598,-0.523599,252.186598,3.665191,252.186598,1.570796
Bus178,252.186598,-0.523599,252.186598,3.665191,252.186598,1.570796
Bus179,252.186598,-0.523599,252.186598,3.665191,252.186598,1.570796
Bus180,252.186598,-0.523599,252.186598,3.665191,252.186598,1.570796
Bus181,252.186598,-0.523599,252.186598,3.665191,252.186598,1.570796
Bus182,252.186598,-0.523599,252.186598,3.665191,252.186598,1.570796
Bus183,252.186598,-0.523599,252.186598,3.665191,252.186598,1.570796
Bus184,252.186598,-0.523599,252.186598,3.665191,252.186598,1.570796
Bus185,252.186598,-0.523599,252.186598,3.665191,252.186598,1.570796
Bus186,252.186598,-0.523599,252.186598,3.665191,252.186598,1.570796
Bus187,252.186598,-0.523599,252.186598,3.665191,252.186598,1.570796
Bus188,252.186598,-0.523599,252.186598,3.665191,252.186598,1.570796
Bus189,252.186598,-0.523599,252.186598,3.665191,252.186598,1.570796
Bus190,252.186598,-0.523599,252.186598,3.665191,252.186598,1.570796
Bus191,252.186598,-0.523599,252.186598,3.665191,252.186598,1.570796
Bus192,252.186598,-0.523599,252.186598,3.665191,252.186598,1.570796
Bus193,252.186598,-0.523599,252.186598,3.665191,252.186598,1.570796
Bus194,252.186598,-0.523599,252.186598,3.665191,252.186598,1.570796
Bus195,252.186598,-0.523599,252.186598,3.665191,252.186598,1.570796
Bus196,252.186598,-0.523599,252.186598,3.665191,252.186598,1.570796
Bus197,252.186598,-0.523599,252.186598,3.665191,252.186598,1.570796
Bus198,252.186598,-0.523599,252.186598,3.665191,252.186598,1.570796
Bus199,252.186598,-0.523599,252.186598,3.665191,252.186598,1.570796
Bus200,252.186598,-0.523599,252.186598,3.665191,252.186598,1.570796
...
SourceBus_1,6668.395609,-0.000000,6668.395609,4.188790,6668.395609,2.094395
LOAD1,252.186598,-0.523599,252.186598,3.665191,252.186598,1.570796
LOAD2,252.186598,-0.523599,252.186598,3.665191,252.186598,1.570796
LOAD3,252.186598,-0.523599,252.186598,3.665191,252.186598,1.570796
LOAD4,252.186598,-0.523599,252.186598,3.665191,252.186598,1.570796
LOAD5,252.186598,-0.523599,252.186598,3.665191,252.186598,1.570796
LOAD6,252.186598,-0.523599,252.186598,3.665191,252.186598,1.570796
LOAD7,252.186598,-0.523599,252.186598,3.665191,252.186598,1.570796
LOAD8,252.186598,-0.523599,252.186598,3.665191,252.186598,1.570796
LOAD9,252.186598,-0.523599,252.186598,3.665191,252.186598,1.570796
LOAD10,252.186598,-0.523599,252.186598,3.665191,252.186598,1.570796
LOAD11,252.186598,-0.523599,252.186598,3.665191,252.186598,1.570796
LOAD12,252.186598,-0.523599,252.186598,3.665191,252.186598,1.570796
LOAD13,252.186598,-0.523599,252.186598,3.665191,252.186598,1.570796
LOAD14,252.186598,-0.523599,252.186598,3.665191,252.186598,1.570796
LOAD15,252.186598,-0.523599,252.186598,3.665191,252.186598,1.570796
LOAD16,252.186598,-0.523599,252.186598,3.665191,252.186598,1.570796
LOAD17,252.186598,-0.523599,252.186598,3.665191,252.186598,1.570796
LOAD18,252.186598,-0.523599,252.186598,3.665191,252.186598,1.570796
LOAD19,252.186598,-0.523599,252.186598,3.665191,252.186598,1.570796
LOAD20,252.186598,-0.523599,252.186598,3.665191,252.186598,1.570796
LOAD21,252.186598,-0.523599,252.186598,3.665191,252.186598,1.570796
LOAD22,252.186598,-0.523599,252.186598,3.665191,252.186598,1.570796
LOAD23,252.186598,-0.523599,252.186598,3.665191,252.186598,1.570796
LOAD24,252.186598,-0.523599,252.186598,3.665191,252.186598,1.570796
LOAD25,252.186598,-0.523599,252.186598,3.665191,252.186598,1.570796
LOAD26,252.186598,-0.523599,252.186598,3.665191,252.186598,1.570796
LOAD27,252.186598,-0.523599,252.186598,3.665191,252.186598,1.570796
LOAD28,252.186598,-0.523599,252.186598,3.665191,252.186598,1.570796
LOAD29,252.186598,-0.523599,252.186598,3.665191,252.186598,1.570796
LOAD30,252.186598,-0.523599,252.186598,3.665191,252.186598,1.570796
LOAD31,252.186598,-0.523599,252.186598,3.665191,252.186598,1.570796
LOAD32,252.186598,-0.523599,252.186598,3.665191,252.186598,1.570796
LOAD33,252.186598,-0.523599,252.186598,3.665191,252.186598,1.570796
LOAD34,252.186598,-0.523599,252.186598,3.665191,252.186598,1.570796
LOAD35,252.186598,-0.523599,252.186598,3.665191,252.186598,1.570796
LOAD36,252.186598,-0.523599,252.186598,3.665191,252.186598,1.570796
LOAD37,252.186598,-0.523599,252.186598,3.665191,252.186598,1.570796
LOAD38,252.186598,-0.523599,252.186598,3.665191,252.186598,1.570796
LOAD39,252.186598,-0.523599,252.186598,3.665191,252.186598,1.570796
LOAD40,252.186598,-0.523599,252.186598,3.665191,252.186598,1.570796
LOAD41,252.186598,-0.523599,252.186598,3.665191,252.186598,1.570796
LOAD42,252.186598,-0.523599,252.186598,3.665191,252.186598,1.570796
LOAD43,252.186598,-0.523599,252.186598,3.665191,252.186598,1.570796
LOAD44,252.186598,-0.523599,252.186598,3.665191,252.186598,1.570796
LOAD45,252.186598,-0.523599,252.186598,3.665191,252.186598,1.570796
LOAD46,252.186598,-0.523599,252.186598,3.665191,252.186598,1.570796
LOAD47,252.186598,-0.523599,252.186598,3.665191,252.186598,1.570796
LOAD48,252.186598,-0.523599,252.186598,3.665191,252.186598,1.570796
LOAD49,252.186598,-0.523599,252.186598,3.665191,252.186598,1.570796
LOAD50,252.186598,-0.523599,252.186598,3.665191,252.186598,1.570796
LOAD51,252.186598,-0.523599,252.186598,3.665191,252.186598,1.570796
LOAD52,252.186598,-0.523599,252.186598,3.665191,252.186598,1.570796
LOAD53,252.186598,-0.523599,252.186598,3.665191,252.186598,1.570796
LOAD54,252.186598,-0.523599,252.186598,3.665191,252.186598,1.570796
LOAD55,252.186598,-0.523599,252.186598,3.665191,252.186598,1.570796
